Circuit: * Z:\non-work-projects\dc-amp-voltmeter\ltspice\bjt-stability.asc

Warning: Multiple definitions of model "2scr375p" Type: BJT
Warning: Multiple definitions of model "bc857b" Type: BJT
Warning: Multiple definitions of model "bc847c" Type: BJT
Warning: Multiple definitions of model "bc847b" Type: BJT
Direct Newton iteration failed to find .op point.  (Use ".option noopiter" to skip.)
Starting Gmin stepping
Gmin = 10
Gmin = 1.07374
Gmin = 0.115292
Gmin = 0.0123794
Gmin = 0.00132923
Gmin = 0.000142725
vernier = 0.5
vernier = 0.666667
Gmin = 4.65514e-05
vernier = 0.888888
Gmin = 7.53781e-06
vernier = 1
Gmin = 8.09366e-07
Gmin = 8.6905e-08
Gmin = 9.33136e-09
Gmin = 1.00195e-09
Gmin = 1.07583e-10
Gmin = 1.15517e-11
Gmin = 1.24035e-12
Gmin = 1.33182e-13
Gmin = 0
Gmin stepping succeeded in finding the operating point.


Date: Wed Aug  2 21:04:15 2023
Total elapsed time: 0.401 seconds.

tnom = 27
temp = 27
method = trap
totiter = 562
traniter = 0
tranpoints = 0
accept = 0
rejected = 0
matrix size = 153
fillins = 220
solver = Normal
Avg thread counts: 1.4/0.0/2.0/1.0
Matrix Compiler1:    1133 opcodes
Matrix Compiler2: 16.21 KB object code size  2.4/8.6/[1.4]

