Circuit: * Z:\non-work-projects\dummy-load\ltspice\current-sense-multiplier.asc

WARNING: Less than two connections to node raw.  This node is used by v1.
Direct Newton iteration failed to find .op point.  (Use ".option noopiter" to skip.)
Starting Gmin stepping
Gmin = 10
Gmin = 1.07374
Gmin = 0.115292
Gmin = 0.0123794
Gmin = 0.00132923
Gmin = 0.000142725
vernier = 0.5
vernier = 0.25
vernier = 0.125
vernier = 0.0625
Gmin = 0.000112423
vernier = 0.03125
vernier = 0.015625
vernier = 0.0208333
Gmin = 0.000109682
vernier = 0.0277778
Gmin = 0.000103235
vernier = 0.037037
vernier = 0.0493827
Gmin = 9.35013e-05
vernier = 0.0658435
vernier = 0.0877914
Gmin = 7.99574e-05
vernier = 0.117055
Gmin = 6.20985e-05
vernier = 0.156073
vernier = 0.208098
Gmin = 4.11849e-05
vernier = 0.277464
vernier = 0.369952
Gmin = 2.16514e-05
vernier = 0.493269
Gmin = 7.7784e-06
vernier = 0.657691
vernier = 0.876922
Gmin = 1.53273e-06
vernier = 1
Gmin = 1.77353e-07
vernier = 0.5
vernier = 0.25
vernier = 0.125
vernier = 0.0625
vernier = 0.03125
vernier = 0.015625
vernier = 0.0078125
Gmin = 1.13506e-07
vernier = 0.00390625
vernier = 0.00195312
vernier = 0.000976562
vernier = 0.000488281
Gmin = 0
Gmin stepping failed

Starting source stepping with srcstepmethod=0
Source Step = 3.0303%
Source Step = 33.3333%
Source Step = 63.6364%
Source Step = 88.6364%
vernier = 0.0625
Source Step = 87.8995%
Source Step = 87.9291%
Source Step = 87.9587%
Source Step = 87.9883%
Source Step = 88.0179%
Source Step = 88.0475%
vernier = 0.00146484
Source Step = 88.0919%
Source Step = 88.1362%
Source Step = 88.1806%
Source Step = 88.225%
Source Step = 88.2694%
vernier = 0.00219727
Source Step = 88.3338%
Source Step = 88.4004%
Source Step = 88.4669%
Source Step = 88.5335%
Source Step = 88.6001%
vernier = 0.0032959
Source Step = 88.6933%
Source Step = 88.7932%
Source Step = 88.8931%
Source Step = 88.993%
Source Step = 89.0928%
vernier = 0.00494385
Source Step = 89.2277%
Source Step = 89.3775%
Source Step = 89.5273%
Source Step = 89.6771%
Source Step = 89.8269%
vernier = 0.00741577
Source Step = 90.0217%
Source Step = 90.1397%
Source Step = 90.1958%
Source Step = 90.252%
Source Step = 90.3082%
Source Step = 90.3644%
Source Step = 90.4206%
Source Step = 90.4767%
Source Step = 90.5329%
vernier = 0.00278091
Source Step = 90.6172%
Source Step = 90.7015%
Source Step = 90.7857%
Source Step = 90.87%
Source Step = 90.9543%
vernier = 0.00417137
Source Step = 91.0765%
Source Step = 91.2029%
Source Step = 91.3293%
Source Step = 91.4557%
Source Step = 91.5821%
vernier = 0.00625706
Source Step = 91.759%
Source Step = 91.9487%
Source Step = 92.1383%
Source Step = 92.3279%
Source Step = 92.5175%
vernier = 0.00938559
Source Step = 92.7734%
Source Step = 93.0579%
Source Step = 93.3423%
Source Step = 93.6267%
Source Step = 93.9111%
vernier = 0.0140784
Source Step = 94.2808%
Source Step = 94.7074%
Source Step = 95.1341%
Source Step = 95.5607%
Source Step = 95.9873%
vernier = 0.0211176
Source Step = 96.5206%
Source Step = 97.1605%
Source Step = 97.8004%
Source Step = 98.4404%
Source Step = 99.0803%
vernier = 0.0316764
Source Step = 99.8482%
Source stepping succeeded in finding the operating point.


Date: Mon Aug 21 11:11:18 2023
Total elapsed time: 1.713 seconds.

tnom = 27
temp = 27
method = modified trap
totiter = 10112
traniter = 2082
tranpoints = 1042
accept = 1042
rejected = 0
matrix size = 141
fillins = 225
solver = Normal
Avg thread counts: 1.1/1.2/1.2/1.1
Matrix Compiler1: 18.94 KB object code size  4.0/2.8/[1.1]
Matrix Compiler2: 15.22 KB object code size  2.8/3.3/[1.4]

