Circuit: * Z:\non-work-projects\dummy-load\ltspice\Draft7.asc

.OP point found by inspection.

Date: Thu Aug 24 00:41:23 2023
Total elapsed time: 0.335 seconds.

tnom = 27
temp = 27
method = modified trap
totiter = 2400
traniter = 2400
tranpoints = 1201
accept = 1115
rejected = 86
matrix size = 2
fillins = 0
solver = Normal
Avg thread counts: 1.1/1.2/1.2/1.1
Matrix Compiler1:       2 opcodes  0.1/[0.1]/0.4
Matrix Compiler2: off  [0.1]/0.2/0.2

