Circuit: * Z:\non-work-projects\dummy-load\ltspice\Draft6.asc

Direct Newton iteration for .op point succeeded.

Date: Tue Aug 22 12:14:24 2023
Total elapsed time: 0.282 seconds.

tnom = 27
temp = 27
method = modified trap
totiter = 2085
traniter = 2082
tranpoints = 1042
accept = 1042
rejected = 0
matrix size = 2
fillins = 0
solver = Normal
Avg thread counts: 1.1/1.2/1.2/1.1
Matrix Compiler1:       2 opcodes  0.1/[0.1]/0.5
Matrix Compiler2: off  [0.0]/0.1/0.3

