Circuit: * Z:\non-work-projects\dummy-load\ltspice\fan-alternative.asc

Warning: Multiple definitions of model "2scr375p" Type: BJT
Warning: Multiple definitions of model "bc857b" Type: BJT
Warning: Multiple definitions of model "bc847c" Type: BJT
Warning: Multiple definitions of model "bc847b" Type: BJT
WARNING: Specified period is not longer than the sum of Trise, Tfall, and Ton for v5.  Increasing period to 0.1005
WARNING: Less than two connections to node real-temp.  This node is used by v5.
WARNING: Less than two connections to node pwm.  This node is used by a:x1:1.
Direct Newton iteration for .op point succeeded.

Date: Sun Aug 20 17:46:33 2023
Total elapsed time: 0.288 seconds.

tnom = 27
temp = 27
method = modified trap
totiter = 10627
traniter = 10614
tranpoints = 5210
accept = 4327
rejected = 883
matrix size = 17
fillins = 0
solver = Normal
Avg thread counts: 1.0/1.0/1.0/1.0
Matrix Compiler1: 614 bytes object code size  0.4/0.4/[0.3]
Matrix Compiler2: 1.08 KB object code size  0.3/0.5/[0.2]

