Circuit: * Z:\non-work-projects\dummy-load\ltspice\fan.asc

Direct Newton iteration failed to find .op point.  (Use ".option noopiter" to skip.)
Starting Gmin stepping
Gmin = 10
Gmin = 1.07374
Gmin = 0.115292
Gmin = 0.0123794
Gmin = 0.00132923
Gmin = 0.000142725
Gmin = 1.5325e-05
Gmin = 1.6455e-06
Gmin = 1.76685e-07
Gmin = 1.89714e-08
Gmin = 2.03704e-09
Gmin = 2.18725e-10
Gmin = 2.34854e-11
Gmin = 2.52173e-12
Gmin = 2.70769e-13
Gmin = 0
Gmin stepping succeeded in finding the operating point.


Date: Sun Aug 13 15:16:57 2023
Total elapsed time: 0.191 seconds.

tnom = 27
temp = 121
method = trap
totiter = 715
traniter = 0
tranpoints = 0
accept = 0
rejected = 0
matrix size = 26
fillins = 10
solver = Normal
Avg thread counts: 1.3/0.0/1.8/1.3
Matrix Compiler1: 1.61 KB object code size  0.8/0.4/[0.3]
Matrix Compiler2: 2.02 KB object code size  0.3/0.4/[0.2]

