Circuit: * Z:\non-work-projects\dummy-load\ltspice\fan2.asc

Warning: Multiple definitions of model "2scr375p" Type: BJT
Warning: Multiple definitions of model "bc857b" Type: BJT
Warning: Multiple definitions of model "bc847c" Type: BJT
Warning: Multiple definitions of model "bc847b" Type: BJT
WARNING: Less than two connections to node v-ref.  This node is used by v3.
Direct Newton iteration for .op point succeeded.

Date: Sun Aug 13 16:58:40 2023
Total elapsed time: 0.257 seconds.

tnom = 27
temp = 27
method = modified trap
totiter = 3299
traniter = 3281
tranpoints = 1345
accept = 1258
rejected = 87
matrix size = 31
fillins = 9
solver = Normal
Avg thread counts: 1.1/1.2/1.2/1.1
Matrix Compiler1: 1.84 KB object code size  0.9/0.7/[0.5]
Matrix Compiler2: 2.38 KB object code size  0.5/0.6/[0.3]

