Circuit: * Z:\non-work-projects\dummy-load\ltspice\fan2.asc

Warning: Multiple definitions of model "2scr375p" Type: BJT
Warning: Multiple definitions of model "bc857b" Type: BJT
Warning: Multiple definitions of model "bc847c" Type: BJT
Warning: Multiple definitions of model "bc847b" Type: BJT
WARNING: Less than two connections to node v-ref.  This node is used by v3.
Direct Newton iteration for .op point succeeded.

Date: Sun Aug 20 15:01:49 2023
Total elapsed time: 0.254 seconds.

tnom = 27
temp = 27
method = modified trap
totiter = 3467
traniter = 3449
tranpoints = 1344
accept = 1256
rejected = 88
matrix size = 31
fillins = 9
solver = Normal
Avg thread counts: 1.1/1.2/1.1/1.1
Matrix Compiler1: 1.84 KB object code size  0.5/0.5/[0.4]
Matrix Compiler2: 2.38 KB object code size  0.3/0.6/[0.3]

