Circuit: * Z:\non-work-projects\dummy-load\ltspice\fan3.asc

Warning: Multiple definitions of model "2scr375p" Type: BJT
Warning: Multiple definitions of model "bc857b" Type: BJT
Warning: Multiple definitions of model "bc847c" Type: BJT
Warning: Multiple definitions of model "bc847b" Type: BJT
WARNING: Less than two connections to node temp.  This node is used by v3.
Direct Newton iteration failed to find .op point.  (Use ".option noopiter" to skip.)
Starting Gmin stepping
Gmin = 10
Gmin = 1.07374
Gmin = 0.115292
Gmin = 0.0123794
Gmin = 0.00132923
Gmin = 0.000142725
Gmin = 1.5325e-05
Gmin = 1.6455e-06
Gmin = 1.76685e-07
Gmin = 1.89714e-08
Gmin = 2.03704e-09
Gmin = 2.18725e-10
Gmin = 2.34854e-11
Gmin = 2.52173e-12
Gmin = 2.70769e-13
Gmin = 0
Gmin stepping succeeded in finding the operating point.


Date: Sun Aug 20 17:25:51 2023
Total elapsed time: 0.298 seconds.

tnom = 27
temp = 27
method = modified trap
totiter = 2782
traniter = 2369
tranpoints = 1109
accept = 1089
rejected = 20
matrix size = 24
fillins = 4
solver = Normal
Avg thread counts: 1.1/1.2/1.2/1.1
Matrix Compiler1: 1.22 KB object code size  0.4/0.4/[0.3]
Matrix Compiler2: 1.77 KB object code size  0.4/0.7/[0.3]

