Circuit: * Z:\non-work-projects\dc-amp-voltmeter\ltspice\mosfet-stability-scratch.asc

Direct Newton iteration failed to find .op point.  (Use ".option noopiter" to skip.)
Starting Gmin stepping
Gmin = 10
Gmin = 1.07374
Gmin = 0.115292
Gmin = 0.0123794
Gmin = 0.00132923
Gmin = 0.000142725
Gmin = 1.5325e-05
vernier = 0.5
Gmin = 3.1742e-06
vernier = 0.25
vernier = 0.125
vernier = 0.0625
Gmin = 3.11095e-06
vernier = 0.0833333
vernier = 0.111111
Gmin = 2.5229e-06
vernier = 0.148148
Gmin = 1.81776e-06
vernier = 0.197531
vernier = 0.263374
Gmin = 1.05477e-06
vernier = 0.351165
vernier = 0.46822
Gmin = 4.49107e-07
vernier = 0.624294
Gmin = 1.2082e-07
vernier = 0.832392
vernier = 1
Gmin = 1.59179e-08
Gmin = 1.70917e-09
Gmin = 1.83521e-10
Gmin = 1.97054e-11
Gmin = 2.11585e-12
Gmin = 2.27188e-13
Gmin = 0
Gmin stepping succeeded in finding the operating point.


Date: Wed Aug  2 00:53:01 2023
Total elapsed time: 0.629 seconds.

tnom = 27
temp = 27
method = modified trap
totiter = 3024
traniter = 2082
tranpoints = 1042
accept = 1042
rejected = 0
matrix size = 140
fillins = 203
solver = Normal
Avg thread counts: 1.1/1.2/1.2/1.1
Matrix Compiler1: 18.19 KB object code size  3.5/2.2/[1.0]
Matrix Compiler2: 14.83 KB object code size  2.5/3.8/[1.5]

