Circuit: * Z:\non-work-projects\dummy-load\ltspice\mosfet-stability-pulse.asc

Direct Newton iteration failed to find .op point.  (Use ".option noopiter" to skip.)
Starting Gmin stepping
Gmin = 10
Gmin = 1.07374
Gmin = 0.115292
Gmin = 0.0123794
Gmin = 0.00132923
Gmin = 0.000142725
Gmin = 1.5325e-05
vernier = 0.5
vernier = 0.25
vernier = 0.125
Gmin = 8.20536e-06
vernier = 0.0625
vernier = 0.0833333
Gmin = 7.13783e-06
vernier = 0.111111
vernier = 0.148148
Gmin = 5.48924e-06
vernier = 0.197531
Gmin = 3.59643e-06
vernier = 0.263374
vernier = 0.351165
Gmin = 1.8161e-06
vernier = 0.46822
vernier = 0.624294
Gmin = 6.2816e-07
vernier = 0.832392
Gmin = 1.18204e-07
vernier = 1
Gmin = 1.31323e-08
Gmin = 1.41007e-09
Gmin = 1.51405e-10
Gmin = 1.6257e-11
Gmin = 1.74558e-12
Gmin = 1.8743e-13
Gmin = 0
Gmin stepping succeeded in finding the operating point.


Date: Sun Aug 20 21:57:08 2023
Total elapsed time: 0.457 seconds.

tnom = 27
temp = 27
method = modified trap
totiter = 3332
traniter = 2398
tranpoints = 1155
accept = 1122
rejected = 33
matrix size = 150
fillins = 206
solver = Normal
Avg thread counts: 1.1/1.2/1.2/1.1
Matrix Compiler1: 18.82 KB object code size  3.7/3.2/[1.0]
Matrix Compiler2: 15.63 KB object code size  2.7/4.2/[1.6]

