Circuit: * Z:\non-work-projects\dc-amp-voltmeter\ltspice\mosfet-stability.asc

Direct Newton iteration failed to find .op point.  (Use ".option noopiter" to skip.)
Starting Gmin stepping
Gmin = 10
Gmin = 1.07374
Gmin = 0.115292
Gmin = 0.0123794
Gmin = 0.00132923
Gmin = 0.000142725
Gmin = 1.5325e-05
Gmin = 1.6455e-06
vernier = 0.5
Gmin = 2.7607e-07
vernier = 0.25
vernier = 0.333333
Gmin = 1.54418e-07
vernier = 0.444444
Gmin = 5.95805e-08
vernier = 0.592592
vernier = 0.790123
Gmin = 1.26465e-08
vernier = 1
Gmin = 1.47951e-09
Gmin = 1.58861e-10
Gmin = 1.70576e-11
Gmin = 1.83154e-12
Gmin = 1.9666e-13
Gmin = 0
Gmin stepping succeeded in finding the operating point.


Date: Wed Aug  2 10:38:34 2023
Total elapsed time: 0.344 seconds.

tnom = 27
temp = 27
method = trap
totiter = 652
traniter = 0
tranpoints = 0
accept = 0
rejected = 0
matrix size = 22
fillins = 22
solver = Normal
Avg thread counts: 1.3/0.0/2.0/1.0
Matrix Compiler1:     105 opcodes
Matrix Compiler2: off  [0.4]/0.9/0.4

