Circuit: * Z:\non-work-projects\dummy-load\ltspice\over-temp-latch.asc

WARNING: Less than two connections to node nc_01.  This node is used by r1.
Direct Newton iteration for .op point succeeded.

Date: Sun Aug 13 13:04:55 2023
Total elapsed time: 0.159 seconds.

tnom = 27
temp = 27
method = modified trap
totiter = 2953
traniter = 2923
tranpoints = 1271
accept = 1211
rejected = 60
matrix size = 28
fillins = 15
solver = Normal
Avg thread counts: 1.1/1.2/1.2/1.1
Matrix Compiler1: 1.88 KB object code size  0.7/0.9/[0.4]
Matrix Compiler2: 2.35 KB object code size  0.6/0.7/[0.4]

