Circuit: * Z:\non-work-projects\dummy-load\ltspice\over-temp-latch2.asc

WARNING: Less than two connections to node nc_01.  This node is used by r1.
Direct Newton iteration failed to find .op point.  (Use ".option noopiter" to skip.)
Starting Gmin stepping
Gmin = 10
Gmin = 1.07374
Gmin = 0.115292
Gmin = 0.0123794
Gmin = 0.00132923
Gmin = 0.000142725
Gmin = 1.5325e-05
Gmin = 1.6455e-06
Gmin = 1.76685e-07
Gmin = 1.89714e-08
Gmin = 2.03704e-09
Gmin = 2.18725e-10
Gmin = 2.34854e-11
Gmin = 2.52173e-12
Gmin = 2.70769e-13
Gmin = 0
Gmin stepping succeeded in finding the operating point.


Date: Sun Aug 13 14:04:01 2023
Total elapsed time: 0.228 seconds.

tnom = 27
temp = 27
method = modified trap
totiter = 3746
traniter = 3361
tranpoints = 1380
accept = 1296
rejected = 84
matrix size = 27
fillins = 14
solver = Normal
Avg thread counts: 1.1/1.2/1.2/1.1
Matrix Compiler1: 1.74 KB object code size  0.5/0.4/[0.3]
Matrix Compiler2: 2.16 KB object code size  0.3/0.4/[0.2]

