Circuit: * Z:\non-work-projects\dummy-load\ltspice\pwm.asc

Direct Newton iteration for .op point succeeded.

Date: Tue Aug 22 23:07:25 2023
Total elapsed time: 3.026 seconds.

tnom = 27
temp = 27
method = modified trap
totiter = 341944
traniter = 341937
tranpoints = 130237
accept = 95999
rejected = 34238
matrix size = 13
fillins = 0
solver = Normal
Avg thread counts: 1.0/1.0/1.0/1.0
Matrix Compiler1: off  [0.4]/0.5/1.3
Matrix Compiler2: off  [0.2]/1.3/0.5

