Circuit: * Z:\non-work-projects\dummy-load\ltspice\PWM_example_usage.asc

WARNING: Less than two connections to node my_pwm1.  This node is used by a:x1:1.
WARNING: Less than two connections to node my_pwm2.  This node is used by a:x2:1.
WARNING: Less than two connections to node my_pwm3.  This node is used by a:x3:1.
Direct Newton iteration for .op point succeeded.

Date: Sun Aug 20 16:34:03 2023
Total elapsed time: 0.121 seconds.

tnom = 27
temp = 27
method = modified trap
totiter = 4058
traniter = 4055
tranpoints = 1929
accept = 1705
rejected = 224
matrix size = 9
fillins = 0
solver = Normal
Avg thread counts: 1.1/1.1/1.1/1.1
Matrix Compiler1: 188 bytes object code size  0.3/0.3/[0.2]
Matrix Compiler2: off  [0.1]/0.2/0.2

