Circuit: * Z:\non-work-projects\dc-amp-voltmeter\ltspice\tip122.asc

Direct Newton iteration for .op point succeeded.

Date: Wed Aug  2 13:59:15 2023
Total elapsed time: 0.483 seconds.

tnom = 27
temp = 27
method = modified trap
totiter = 2050
traniter = 2034
tranpoints = 1018
accept = 1018
rejected = 0
matrix size = 12
fillins = 6
solver = Normal
Avg thread counts: 1.1/1.2/1.2/1.1
Matrix Compiler1: 1.30 KB object code size  0.4/0.4/[0.4]
Matrix Compiler2: off  [0.2]/0.4/0.2

