Circuit: * Z:\non-work-projects\dummy-load\ltspice\TL431ref1.asc

Direct Newton iteration for .op point succeeded.

Date: Wed Aug 16 10:15:22 2023
Total elapsed time: 0.127 seconds.

tnom = 27
temp = 27
method = modified trap
totiter = 2114
traniter = 2102
tranpoints = 1052
accept = 1052
rejected = 0
matrix size = 13
fillins = 8
solver = Normal
Avg thread counts: 1.1/1.2/1.2/1.1
Matrix Compiler1: 802 bytes object code size  0.5/0.3/[0.2]
Matrix Compiler2: 977 bytes object code size  0.2/0.2/[0.2]

