Circuit: * Z:\non-work-projects\dummy-load\ltspice\voltage-measurement.asc

Direct Newton iteration for .op point succeeded.

Date: Wed Aug  9 17:34:23 2023
Total elapsed time: 1.126 seconds.

tnom = 27
temp = 27
method = modified trap
totiter = 45870
traniter = 45866
tranpoints = 22934
accept = 14549
rejected = 8385
matrix size = 7
fillins = 0
solver = Normal
Avg thread counts: 1.0/1.0/1.0/1.0
Matrix Compiler1: off  [0.1]/0.1/0.1
Matrix Compiler2: off  [0.1]/0.2/0.1

